data_image0
_chemical_formula_structural       Li15Fe16P16O64
_chemical_formula_sum              "Li15 Fe16 P16 O64"
_cell_length_a       10.23619605
_cell_length_b       11.9415102
_cell_length_c       9.30983438
_cell_angle_alpha    90.0
_cell_angle_beta     90.0
_cell_angle_gamma    90.0

_space_group_name_H-M_alt    "P 1"
_space_group_IT_number       1

loop_
  _space_group_symop_operation_xyz
  'x, y, z'

loop_
  _atom_site_type_symbol
  _atom_site_label
  _atom_site_symmetry_multiplicity
  _atom_site_fract_x
  _atom_site_fract_y
  _atom_site_fract_z
  _atom_site_occupancy
  Li  Li1       1.0  0.0  0.0  0.0  1.0000
  Li  Li2       1.0  0.0  0.0  0.5  1.0000
  Li  Li3       1.0  0.0  0.5  0.0  1.0000
  Li  Li4       1.0  0.0  0.5  0.5  1.0000
  Li  Li5       1.0  0.5  0.25  0.25  1.0000
  Li  Li6       1.0  0.5  0.25  0.75  1.0000
  Li  Li7       1.0  0.5  0.7500000000000001  0.25  1.0000
  Li  Li8       1.0  0.5  0.7500000000000001  0.75  1.0000
  Li  Li9       1.0  0.5  0.0  0.25  1.0000
  Li  Li10      1.0  0.5  0.0  0.75  1.0000
  Li  Li11      1.0  0.5  0.5  0.25  1.0000
  Li  Li12      1.0  0.0  0.25  0.0  1.0000
  Li  Li13      1.0  0.0  0.25  0.5  1.0000
  Li  Li14      1.0  0.0  0.7500000000000001  0.0  1.0000
  Li  Li15      1.0  0.0  0.7500000000000001  0.5  1.0000
  Fe  Fe1       1.0  0.78115127  0.125  0.26493287  1.0000
  Fe  Fe2       1.0  0.78115127  0.125  0.7649328699999998  1.0000
  Fe  Fe3       1.0  0.78115127  0.625  0.26493287  1.0000
  Fe  Fe4       1.0  0.78115127  0.625  0.7649328699999998  1.0000
  Fe  Fe5       1.0  0.71884873  0.37500000000000006  0.014933859999999998  1.0000
  Fe  Fe6       1.0  0.71884873  0.37500000000000006  0.51493386  1.0000
  Fe  Fe7       1.0  0.71884873  0.8750000000000001  0.01493387  1.0000
  Fe  Fe8       1.0  0.71884873  0.8750000000000001  0.51493386  1.0000
  Fe  Fe9       1.0  0.28115127  0.125  0.48506664  1.0000
  Fe  Fe10      1.0  0.28115127  0.125  0.98506664  1.0000
  Fe  Fe11      1.0  0.28115127  0.625  0.48506662999999994  1.0000
  Fe  Fe12      1.0  0.28115127  0.625  0.98506664  1.0000
  Fe  Fe13      1.0  0.21884873000000002  0.37500000000000006  0.23506663  1.0000
  Fe  Fe14      1.0  0.21884873000000002  0.37500000000000006  0.7350666399999999  1.0000
  Fe  Fe15      1.0  0.21884873000000002  0.8750000000000001  0.23506663  1.0000
  Fe  Fe16      1.0  0.21884873000000002  0.8750000000000001  0.7350666399999999  1.0000
  P   P1        1.0  0.0938663  0.125  0.20931129  1.0000
  P   P2        1.0  0.0938663  0.125  0.7093112799999999  1.0000
  P   P3        1.0  0.0938663  0.625  0.20931129  1.0000
  P   P4        1.0  0.0938663  0.625  0.7093112799999999  1.0000
  P   P5        1.0  0.40613369999999993  0.37500000000000006  0.45931178999999994  1.0000
  P   P6        1.0  0.40613369999999993  0.37500000000000006  0.95931179  1.0000
  P   P7        1.0  0.40613369999999993  0.8750000000000001  0.45931178  1.0000
  P   P8        1.0  0.40613369999999993  0.8750000000000001  0.95931179  1.0000
  P   P9        1.0  0.5938663  0.125  0.04068772  1.0000
  P   P10       1.0  0.5938663  0.125  0.54068772  1.0000
  P   P11       1.0  0.5938663  0.625  0.04068771  1.0000
  P   P12       1.0  0.5938663  0.625  0.54068772  1.0000
  P   P13       1.0  0.9061337  0.37500000000000006  0.29068822  1.0000
  P   P14       1.0  0.9061337  0.37500000000000006  0.7906882199999998  1.0000
  P   P15       1.0  0.9061337  0.8750000000000001  0.29068822  1.0000
  P   P16       1.0  0.9061337  0.8750000000000001  0.7906882099999999  1.0000
  O   O1        1.0  0.09423067  0.125  0.37239328  1.0000
  O   O2        1.0  0.09423067  0.125  0.87239328  1.0000
  O   O3        1.0  0.09423067  0.625  0.37239328  1.0000
  O   O4        1.0  0.09423067  0.625  0.87239328  1.0000
  O   O5        1.0  0.8341545199999999  0.27277902  0.35686767  1.0000
  O   O6        1.0  0.8341545199999999  0.27277902  0.85686767  1.0000
  O   O7        1.0  0.8341545199999999  0.77277902  0.35686767  1.0000
  O   O8        1.0  0.8341545199999999  0.77277902  0.85686767  1.0000
  O   O9        1.0  0.8341545199999999  0.47722149000000014  0.35686767  1.0000
  O   O10       1.0  0.8341545199999999  0.47722149000000014  0.85686767  1.0000
  O   O11       1.0  0.8341545199999999  0.9772214900000002  0.35686767  1.0000
  O   O12       1.0  0.8341545199999999  0.9772214900000002  0.85686767  1.0000
  O   O13       1.0  0.9057703299999998  0.37500000000000006  0.12760722  1.0000
  O   O14       1.0  0.9057703299999998  0.37500000000000006  0.62760722  1.0000
  O   O15       1.0  0.9057703299999998  0.8750000000000001  0.12760722  1.0000
  O   O16       1.0  0.9057703299999998  0.8750000000000001  0.62760722  1.0000
  O   O17       1.0  0.04430856  0.37500000000000006  0.3549322199999999  1.0000
  O   O18       1.0  0.04430856  0.37500000000000006  0.8549322199999999  1.0000
  O   O19       1.0  0.04430856  0.8750000000000001  0.3549322199999999  1.0000
  O   O20       1.0  0.04430856  0.8750000000000001  0.8549322199999999  1.0000
  O   O21       1.0  0.40576933  0.37500000000000006  0.12239277999999999  1.0000
  O   O22       1.0  0.40576933  0.37500000000000006  0.62239278  1.0000
  O   O23       1.0  0.40576933  0.8750000000000001  0.12239277999999999  1.0000
  O   O24       1.0  0.40576933  0.8750000000000001  0.62239278  1.0000
  O   O25       1.0  0.16584548  0.022779010000000002  0.14313283  1.0000
  O   O26       1.0  0.16584548  0.02277902  0.64313283  1.0000
  O   O27       1.0  0.16584548  0.52277902  0.14313283  1.0000
  O   O28       1.0  0.16584548  0.52277902  0.64313283  1.0000
  O   O29       1.0  0.66584548  0.22722098000000004  0.10686717  1.0000
  O   O30       1.0  0.66584548  0.22722098000000004  0.60686717  1.0000
  O   O31       1.0  0.66584548  0.7272209800000002  0.10686717  1.0000
  O   O32       1.0  0.66584548  0.7272209800000002  0.60686717  1.0000
  O   O33       1.0  0.33415452  0.27277902  0.39313283  1.0000
  O   O34       1.0  0.33415452  0.27277902  0.8931328299999999  1.0000
  O   O35       1.0  0.33415452  0.77277902  0.39313283  1.0000
  O   O36       1.0  0.33415452  0.77277902  0.8931328299999999  1.0000
  O   O37       1.0  0.33415452  0.47722149000000014  0.39313283  1.0000
  O   O38       1.0  0.33415452  0.47722149000000014  0.8931328299999999  1.0000
  O   O39       1.0  0.33415452  0.9772214900000002  0.39313283  1.0000
  O   O40       1.0  0.33415452  0.9772214900000002  0.8931328299999999  1.0000
  O   O41       1.0  0.95569144  0.125  0.14506827  1.0000
  O   O42       1.0  0.95569144  0.125  0.64506827  1.0000
  O   O43       1.0  0.95569144  0.625  0.14506827  1.0000
  O   O44       1.0  0.95569144  0.625  0.64506828  1.0000
  O   O45       1.0  0.45569144000000006  0.125  0.10493172999999997  1.0000
  O   O46       1.0  0.45569144000000006  0.125  0.60493173  1.0000
  O   O47       1.0  0.45569144000000006  0.625  0.10493172999999997  1.0000
  O   O48       1.0  0.45569144000000006  0.625  0.60493173  1.0000
  O   O49       1.0  0.54430856  0.37500000000000006  0.39506876999999996  1.0000
  O   O50       1.0  0.54430856  0.37500000000000006  0.89506878  1.0000
  O   O51       1.0  0.54430856  0.8750000000000001  0.39506876999999996  1.0000
  O   O52       1.0  0.54430856  0.8750000000000001  0.89506878  1.0000
  O   O53       1.0  0.59423067  0.125  0.37760772  1.0000
  O   O54       1.0  0.59423067  0.125  0.87760772  1.0000
  O   O55       1.0  0.59423067  0.625  0.37760772  1.0000
  O   O56       1.0  0.59423067  0.625  0.87760772  1.0000
  O   O57       1.0  0.66584548  0.022779010000000002  0.10686717  1.0000
  O   O58       1.0  0.66584548  0.022779010000000002  0.60686717  1.0000
  O   O59       1.0  0.66584548  0.52277902  0.10686717  1.0000
  O   O60       1.0  0.66584548  0.52277902  0.60686717  1.0000
  O   O61       1.0  0.16584548  0.22722098000000004  0.14313283  1.0000
  O   O62       1.0  0.16584548  0.22722099000000007  0.64313283  1.0000
  O   O63       1.0  0.16584548  0.7272209800000002  0.14313283  1.0000
  O   O64       1.0  0.16584548  0.7272209800000002  0.64313283  1.0000
